Uv/Vis Spectrum: Tetrahydrofuran
Formula: C4H8O
CAS: 109-99-9
Melting point: -108.3
Boiling point: 65
Instrument: Hilger fluorite prism spectrograph
Origin: INSTITUTE OF ENERGY PROBLEMS OF CHEMICAL PHYSICS, RAS and James Klimavicz
Wavelength (nm)	Logarithm epsilon
161	2.91525
162	2.94837
163	2.99576
164	3.07089
165	3.16694
166	3.21542
167	3.26013
168	3.30677
169	3.35092
170	3.38186
171	3.43454
172	3.44747
173	3.40754
174	3.2746
175	3.13037
176	2.95082
177	2.81939
178	2.71847
179	2.6767
180	2.63953
181	2.66499
182	2.7121
183	2.75159
184	2.79651
185	2.84029
186	2.86309
187	2.89352
188	2.87621
189	2.87289
190	2.8604
191	2.81683
192	2.78948
193	2.74416
194	2.65456
195	2.59328
196	2.54416
197	2.34322
198	2.17092
199	2.09046
200	1.94
201	1.82
202	1.74
203	1.55
204	1.32
205	1.07
206	0.83
207	0.61
208	0.45
209	0.29
210	0.201
211	0.09
212	0.02
213	-0.06
214	-0.192
215	-0.37
216	-0.55
217	-0.79
218	-0.93
219	-1.12
220	-1.25
