Uv/Vis Spectrum: Tetrahydrofuran
Formula: C4H8O
CAS: 109-99-9
Melting point: -108.3
Boiling point: 65
Instrument: Hilger fluorite prism spectrograph
Origin: INSTITUTE OF ENERGY PROBLEMS OF CHEMICAL PHYSICS, RAS and James Klimavicz
Wavelength (nm)	Logarithm epsilon
220	-1.25
219	-1.12
218	-0.93
217	-0.79
216	-0.55
215	-0.37
214	-0.192
213	-0.06
212	0.02
211	0.09
210	0.201
209	0.29
208	0.45
207	0.61
206	0.83
205	1.07
204	1.32
203	1.55
202	1.74
201	1.82
200	1.94
199	2.09046
198	2.17092
197	2.34322
196	2.54416
195	2.59328
194	2.65456
193	2.74416
192	2.78948
191	2.81683
190	2.8604
189	2.87289
188	2.87621
187	2.89352
186	2.86309
185	2.84029
184	2.79651
183	2.75159
182	2.7121
181	2.66499
180	2.63953
179	2.6767
178	2.71847
177	2.81939
176	2.95082
175	3.13037
174	3.2746
173	3.40754
172	3.44747
171	3.43454
170	3.38186
169	3.35092
168	3.30677
167	3.26013
166	3.21542
165	3.16694
164	3.07089
163	2.99576
162	2.94837
161	2.91525
