Uv/Vis Spectrum: gama-oxo 1H-indole-3-butanoic acid, methyl ester
Formula: C13H13NO3
CAS: 13672-36-1
Melting point: 116-117
Instrument: unknown
Origin: INSTITUTE OF ENERGY PROBLEMS OF CHEMICAL PHYSICS, RAS
Wavelength (nm)	Logarithm epsilon
202.075	4.375
203.575	4.39
205.075	4.417
206.575	4.444
208.075	4.463
209.575	4.472
211.075	4.468
212.575	4.453
214.075	4.426
215.575	4.39
217.075	4.346
217.291	4.337
218.791	4.272
220.291	4.206
221.791	4.12
223.291	4.02
224.791	3.927
226.291	3.859
227.791	3.827
229.291	3.829
230.791	3.856
232.291	3.89
233.758	3.922
235.258	3.972
236.758	4.012
238.258	4.041
239.758	4.058
241.258	4.064
242.758	4.06
244.258	4.047
245.758	4.028
247.258	4.006
248.758	3.983
248.765	3.982
250.265	3.964
251.765	3.945
253.265	3.931
254.765	3.924
256.265	3.923
257.765	3.924
259.265	3.923
260.765	3.917
262.265	3.902
263.565	3.89
265.065	3.857
266.565	3.831
268.065	3.813
269.565	3.804
271.065	3.801
272.565	3.806
274.065	3.816
275.565	3.831
277.065	3.848
278.565	3.868
280.065	3.888
281.565	3.909
283.065	3.929
284.565	3.948
286.065	3.967
287.565	3.986
289.065	4.004
290.565	4.022
291.913	4.04
293.413	4.053
294.913	4.061
296.413	4.066
297.913	4.065
299.413	4.058
300.913	4.044
302.413	4.023
303.913	3.994
305.413	3.957
306.913	3.912
308.413	3.859
309.913	3.8
311.413	3.737
312.913	3.674
312.965	3.667
314.465	3.614
315.965	3.545
317.465	3.463
318.965	3.374
320.465	3.282
321.965	3.191
323.465	3.102
324.965	3.016
326.465	2.93
327.965	2.84
329.465	2.734
329.641	2.717
331.141	2.584
332.641	2.363
334.141	2.115
