Uv/Vis Spectrum: Iron, tris-1,3-diphenyl-1,3-propanedionato-o,o')-
Formula: C45H33FeO6
CAS: 14405-49-3
Melting point: 275-276
Instrument: Cary II M
Origin: INSTITUTE OF ENERGY PROBLEMS OF CHEMICAL PHYSICS, RAS
Wavelength (nm)	Logarithm epsilon
279.99	4.558
281.54	4.558
283.09	4.562
284.64	4.562
286.02	4.572
287.57	4.575
289.12	4.579
290.5	4.589
292.05	4.592
293.42	4.606
294.97	4.609
296.35	4.623
297.9	4.633
299.28	4.643
300.83	4.65
302.2	4.66
303.75	4.664
305.3	4.67
306.85	4.677
308.4	4.677
309.95	4.684
311.5	4.691
313.05	4.691
314.6	4.694
316.15	4.694
317.7	4.701
319.25	4.704
320.8	4.704
322.35	4.704
323.9	4.704
325.45	4.698
327	4.694
328.55	4.694
330.1	4.691
331.65	4.691
333.2	4.687
334.75	4.681
336.29	4.677
337.84	4.677
339.39	4.674
340.94	4.67
342.49	4.664
344.04	4.66
345.42	4.647
346.97	4.636
348.52	4.626
349.9	4.616
351.27	4.599
352.65	4.585
354.2	4.579
355.58	4.562
356.96	4.548
358.33	4.531
359.71	4.514
360.92	4.497
362.29	4.48
363.5	4.463
364.7	4.443
365.91	4.426
367.11	4.405
368.32	4.388
369.53	4.368
370.39	4.344
371.59	4.324
372.62	4.303
373.49	4.28
374.52	4.256
375.38	4.232
376.41	4.208
377.27	4.184
378.31	4.161
379.51	4.14
380.54	4.12
381.75	4.1
383.13	4.089
384.68	4.079
386.05	4.066
387.6	4.062
389.15	4.066
390.7	4.066
392.25	4.069
393.63	4.079
395.18	4.083
396.73	4.086
398.28	4.093
399.83	4.096
401.38	4.096
402.93	4.1
404.48	4.1
406.03	4.1
407.58	4.1
409.13	4.1
410.68	4.096
412.22	4.096
413.77	4.086
415.32	4.083
416.87	4.076
418.42	4.066
419.8	4.052
421.35	4.042
422.73	4.032
424.11	4.015
425.31	3.998
426.52	3.981
427.55	3.96
428.75	3.94
429.96	3.919
430.99	3.896
432.2	3.875
433.06	3.851
434.09	3.831
435.12	3.811
436.16	3.787
437.19	3.763
438.4	3.743
439.6	3.726
440.63	3.705
441.84	3.685
443.04	3.665
444.42	3.648
445.8	3.631
447.18	3.614
448.55	3.597
449.93	3.583
451.31	3.569
452.88	3.562
454.41	3.556
455.96	3.549
457.45	3.547
459.06	3.546
460.61	3.546
462.16	3.546
463.71	3.546
465.26	3.546
469.84	3.545
472.25	3.544
474.34	3.542
476.1	3.539
477.65	3.535
478.84	3.533
480.78	3.529
482.06	3.526
483.67	3.522
485.4	3.518
486.95	3.515
488.5	3.511
489.62	3.508
491.6	3.505
493	3.502
494.45	3.499
496.25	3.495
497.8	3.491
499.35	3.488
500.9	3.485
502.45	3.481
503.94	3.477
505.54	3.471
507.09	3.464
508.64	3.457
510.19	3.451
511.34	3.447
512.79	3.44
514.84	3.43
516.39	3.423
517.94	3.413
519.49	3.406
521.04	3.396
522.28	3.387
523.97	3.376
525.52	3.366
526.63	3.356
528.44	3.345
529.82	3.335
531.37	3.325
532.75	3.311
534.13	3.298
535.5	3.287
536.88	3.274
538.26	3.26
539.64	3.243
541.01	3.23
542.22	3.213
543.6	3.196
544.8	3.179
546.18	3.162
547.38	3.145
548.59	3.128
549.97	3.111
551.17	3.094
552.38	3.073
553.58	3.056
554.79	3.039
555.99	3.022
557.2	3.005
558.4	2.988
559.61	2.971
560.81	2.951
562.19	2.934
563.4	2.917
564.6	2.897
565.81	2.88
566.84	2.859
568.04	2.839
569.25	2.818
570.46	2.798
571.66	2.781
572.69	2.761
573.9	2.74
574.93	2.72
576.14	2.7
577.34	2.683
578.55	2.662
579.58	2.642
580.61	2.621
581.82	2.601
583.02	2.581
584.23	2.56
585.26	2.536
586.47	2.516
587.5	2.496
588.53	2.475
589.57	2.452
590.77	2.431
591.81	2.411
592.84	2.39
593.87	2.367
595.08	2.346
596.11	2.326
596.97	2.302
598.18	2.282
599.38	2.261
600.24	2.237
601.27	2.214
602.48	2.193
603.51	2.169
604.55	2.146
605.58	2.125
606.61	2.105
607.65	2.085
608.68	2.061
609.88	2.04
611.09	2.023
612.12	2.003
613.16	1.983
614.19	1.962
615.22	1.942
616.43	1.921
617.63	1.901
618.84	1.881
619.87	1.86
620.9	1.84
621.94	1.819
622.97	1.799
624.17	1.779
625.38	1.758
626.41	1.738
627.45	1.718
628.48	1.697
629.51	1.677
630.72	1.656
631.92	1.636
633.13	1.616
634.16	1.595
635.19	1.575
636.23	1.554
637.43	1.534
638.64	1.514
639.84	1.493
640.88	1.473
642.08	1.453
643.29	1.432
644.49	1.412
645.7	1.391
646.73	1.371
