Uv/Vis Spectrum: Chlorophyll a
Formula: C55H72MgN4O5
CAS: 42617-16-3
Instrument: Cary 14R
Origin: INSTITUTE OF ENERGY PROBLEMS OF CHEMICAL PHYSICS, RAS
Wavelength (nm)	Logarithm epsilon
380.84	4.568
381.05	4.568
381.26	4.568
381.47	4.569
381.68	4.569
381.89	4.569
382.1	4.569
382.31	4.57
382.52	4.57
382.73	4.57
382.94	4.57
383.15	4.572
383.36	4.572
383.57	4.572
383.78	4.572
383.99	4.572
384.2	4.572
385.04	4.574
385.88	4.575
386.72	4.577
387.56	4.58
388.4	4.581
389.24	4.584
390.07	4.586
390.91	4.589
391.75	4.593
392.59	4.597
393.43	4.6
394.27	4.605
395.11	4.61
395.95	4.614
396.79	4.619
397.63	4.624
398.47	4.631
399.31	4.637
400.15	4.645
400.99	4.656
401.83	4.669
402.67	4.683
403.51	4.697
404.35	4.709
405.19	4.723
406.03	4.731
406.87	4.737
407.71	4.741
408.55	4.746
409.39	4.751
410.22	4.754
411.06	4.757
411.9	4.76
412.74	4.763
413.58	4.766
414.42	4.768
415.26	4.77
416.1	4.773
416.94	4.775
417.78	4.778
418.62	4.781
419.46	4.785
420.3	4.788
421.14	4.794
421.98	4.799
422.82	4.809
423.66	4.82
424.5	4.833
425.34	4.846
426.18	4.86
427.02	4.876
427.86	4.891
428.7	4.904
429.54	4.915
430.37	4.922
431.21	4.928
432.05	4.934
432.89	4.934
433.73	4.929
434.57	4.923
435.41	4.912
436.25	4.901
437.09	4.882
437.93	4.855
438.77	4.829
439.61	4.792
440.07	4.769
440.43	4.743
440.95	4.71
441.71	4.665
442.55	4.62
443.33	4.563
444.23	4.506
445.07	4.446
445.91	4.396
446.75	4.344
447.59	4.294
448.43	4.244
449.27	4.2
450.1	4.144
450.94	4.098
451.78	4.048
452.62	4.004
453.46	3.956
454.3	3.902
455.14	3.846
455.87	3.798
456.82	3.743
457.66	3.689
458.44	3.645
459.34	3.595
460.08	3.561
461.02	3.518
461.86	3.474
462.7	3.442
463.54	3.407
464.39	3.372
465.18	3.342
466.06	3.306
466.99	3.28
467.74	3.258
468.58	3.231
