Uv/Vis Spectrum: Ergosterol
Formula: C28H44O
CAS: 57-87-4
Melting point: 168
Instrument: Hilger Uvispek
Origin: INSTITUTE OF ENERGY PROBLEMS OF CHEMICAL PHYSICS, RAS
Wavelength (nm)	Logarithm epsilon
217.23	3.568
218.41	3.548
219.42	3.527
220.61	3.507
221.79	3.49
222.97	3.473
224.32	3.456
225.67	3.439
227.02	3.422
228.38	3.405
229.73	3.392
231.08	3.375
232.43	3.364
233.78	3.351
235.3	3.341
236.82	3.334
238.34	3.341
239.69	3.354
241.04	3.368
242.23	3.388
243.41	3.405
244.59	3.425
245.6	3.446
246.62	3.466
247.63	3.487
248.64	3.507
249.49	3.531
250.5	3.551
251.35	3.578
252.19	3.602
253.04	3.629
253.88	3.656
254.72	3.68
255.57	3.707
256.41	3.734
257.09	3.761
258.1	3.785
258.95	3.809
259.96	3.829
261.14	3.85
262.49	3.867
263.85	3.877
265.2	3.894
266.38	3.914
267.39	3.938
268.24	3.965
269.08	3.989
269.93	4.013
271.11	4.029
272.63	4.019
273.81	4.002
274.99	3.982
276.34	3.965
277.86	3.965
278.71	3.989
279.55	4.013
280.57	4.033
281.92	4.043
283.1	4.026
283.95	3.999
284.62	3.972
285.13	3.941
285.63	3.914
286.14	3.887
286.65	3.86
287.32	3.833
287.83	3.806
288.84	3.782
290.36	3.772
291.71	3.782
293.23	3.789
294.75	3.785
295.6	3.761
296.11	3.731
296.27	3.7
296.61	3.67
297.12	3.639
297.29	3.609
297.63	3.578
297.96	3.548
298.3	3.517
298.47	3.487
298.81	3.456
299.15	3.425
299.48	3.395
299.82	3.364
299.99	3.334
300.5	3.307
300.84	3.276
301	3.246
301.34	3.215
301.68	3.185
301.85	3.154
302.02	3.123
302.36	3.093
302.69	3.062
302.86	3.032
303.2	3.001
303.54	2.971
303.88	2.94
304.04	2.91
304.38	2.879
304.72	2.849
305.06	2.818
305.4	2.787
305.73	2.757
306.07	2.726
306.41	2.696
306.75	2.665
307.08	2.635
307.59	2.608
307.93	2.577
308.27	2.547
308.77	2.516
309.11	2.485
309.45	2.455
309.96	2.428
310.29	2.397
310.8	2.37
311.14	2.34
311.65	2.312
311.98	2.282
312.49	2.251
