Uv/Vis Spectrum: (S)-4-chloro-2-[[(2-cyclohexyl-1-methylethyl)imino]phenylmethyl]phenol
Formula: C22H26ClNO
CAS: 58292-23-2
Melting point: oil
Instrument: unknown
Origin: INSTITUTE OF ENERGY PROBLEMS OF CHEMICAL PHYSICS, RAS
Wavelength (nm)	Logarithm epsilon
300.114	3
301.614	3.041
303.114	3.077
304.614	3.112
306.114	3.144
307.614	3.176
309.114	3.206
310.614	3.235
312.114	3.263
313.614	3.289
315.114	3.315
316.614	3.339
318.114	3.361
319.614	3.382
321.114	3.401
322.614	3.419
324.114	3.434
325.614	3.447
327.114	3.459
328.614	3.468
330.114	3.474
331.614	3.479
333.114	3.481
334.614	3.481
336.114	3.479
337.614	3.474
339.114	3.467
340.614	3.458
342.114	3.446
343.614	3.433
345.114	3.417
346.614	3.401
346.855	3.4
348.355	3.38
349.855	3.361
351.355	3.343
352.855	3.326
354.355	3.31
355.855	3.296
357.355	3.282
358.855	3.27
360.355	3.259
361.855	3.25
363.355	3.242
364.855	3.236
366.355	3.232
367.855	3.229
369.355	3.228
370.855	3.229
372.355	3.231
373.855	3.235
375.355	3.24
376.855	3.247
378.355	3.254
379.855	3.263
381.355	3.273
382.855	3.283
384.355	3.294
385.853	3.304
387.393	3.312
388.933	3.322
390.134	3.333
391.634	3.342
393.134	3.352
394.634	3.361
396.134	3.37
397.634	3.378
399.134	3.387
400.634	3.395
402.134	3.402
403.634	3.408
405.134	3.414
406.634	3.418
408.134	3.422
409.634	3.425
411.134	3.427
412.634	3.427
414.134	3.426
415.634	3.424
417.134	3.421
418.634	3.417
420.134	3.411
421.634	3.403
423.134	3.395
424.634	3.384
426.134	3.373
427.634	3.359
429.134	3.344
430.634	3.328
432.134	3.31
433.634	3.29
435.134	3.268
436.634	3.245
438.134	3.22
439.634	3.193
441.134	3.164
442.634	3.133
444.134	3.1
445.634	3.064
447.134	3.027
448.634	2.987
450.134	2.945
451.634	2.901
453.134	2.853
