Uv/Vis Spectrum: Isopropanol
Formula: C3H8O
CAS: 67-63-0
State: <none>
Boiling point: 82/ 10 mm
Instrument: Beckman DU
Origin: Fabricated by James Klimavicz for Demo Purposes only
Wavelength (nm)	Logarithm epsilon
210.5	0.22
211.5	0.11
212.5	0
213.5	-0.09
214.5	-0.14
215.5	-0.2
216.5	-0.25
217.5	-0.32
218.5	-0.36
219.5	-0.43
220.5	-0.52
221.5	-0.59
222.51	-0.65
223.36	-0.69
224.21	-0.74
225.07	-0.78
226.12	-0.815
226.99	-0.832
227.87	-0.856
228.58	-0.878
229.3	-0.902
230.2	-0.927
230.93	-0.955
231.66	-0.98
232.57	-1.008
233.13	-1.033
234.06	-1.061
234.62	-1.089
235.38	-1.117
236.32	-1.145
236.9	-1.174
237.47	-1.202
238.24	-1.23
238.83	-1.258
239.41	-1.286
240.2	-1.315
240.79	-1.343
241.58	-1.371
242.38	-1.399
243.39	-1.427
244.2	-1.456
245.22	-1.484
246.46	-1.512
247.71	-1.54
248.76	-1.568
250.24	-1.596
251.75	-1.621
253.49	-1.649
255.48	-1.674
257.5	-1.699
259.55	-1.72
261.4	-1.744
263.28	-1.766
265.42	-1.783
267.36	-1.794
269.57	-1.801
271.82	-1.79
274.11	-1.783
276.44	-1.766
278.54	-1.752
280.67	-1.741
282.84	-1.73
284.76	-1.727
286.99	-1.727
288.97	-1.73
290.98	-1.734
292.72	-1.748
294.49	-1.762
296.27	-1.773
297.78	-1.794
299.61	-1.811
301.14	-1.833
302.7	-1.85
304.27	-1.875
305.86	-1.9
306.82	-1.921
308.11	-1.949
309.41	-1.974
310.39	-2.002
311.38	-2.03
312.38	-2.058
313.38	-2.086
314.39	-2.115
315.74	-2.143
316.76	-2.171
317.79	-2.203
318.83	-2.231
319.88	-2.263
320.93	-2.294
321.63	-2.326
322.69	-2.354
323.76	-2.382
324.84	-2.414
325.56	-2.446
326.65	-2.478
327.74	-2.509
328.85	-2.541
329.59	-2.573
330.33	-2.604
331.45	-2.636
332.57	-2.668
333.69	-2.7
334.81	-2.731
335.93	-2.763
337.05	-2.795
338.17	-2.826
339.29	-2.858
