Uv/Vis Spectrum: Riboflavin 2',3',4',5'-tetraacetate
Formula: C25H28N4O10
CAS: 752-13-6
Melting point: 250-252
Instrument: Hitachi EPS-3T
Origin: INSTITUTE OF ENERGY PROBLEMS OF CHEMICAL PHYSICS, RAS
Wavelength (nm)	Logarithm epsilon
233.941	4.301
234.441	4.252
234.941	4.213
235.441	4.181
235.941	4.156
236.199	4.128
236.699	4.119
237.199	4.111
237.699	4.103
238.199	4.095
238.699	4.089
239.199	4.082
239.699	4.077
240.199	4.072
240.699	4.067
241.199	4.063
241.699	4.06
242.199	4.058
242.699	4.057
243.199	4.056
243.699	4.056
244.199	4.057
244.699	4.059
245.199	4.061
245.699	4.065
246.199	4.069
246.699	4.075
247.199	4.081
247.699	4.089
248.199	4.097
248.699	4.107
249.199	4.117
249.517	4.118
250.017	4.132
250.517	4.158
251.017	4.19
251.517	4.226
252.017	4.262
252.517	4.295
253.017	4.325
253.517	4.351
254.017	4.372
254.517	4.388
255.017	4.401
255.517	4.409
256.017	4.416
256.517	4.421
256.934	4.421
257.434	4.43
257.934	4.437
258.434	4.443
258.934	4.449
259.434	4.454
259.934	4.459
260.434	4.463
260.934	4.466
261.434	4.47
261.934	4.473
262.434	4.476
262.934	4.479
263.434	4.481
263.934	4.484
264.401	4.488
264.901	4.492
265.401	4.496
265.901	4.5
266.401	4.504
266.901	4.507
267.401	4.511
267.901	4.514
268.401	4.516
268.901	4.518
269.401	4.52
269.901	4.521
270.401	4.521
270.901	4.521
271.401	4.519
271.901	4.517
272.401	4.514
272.901	4.51
273.401	4.505
273.901	4.498
274.364	4.494
274.864	4.479
275.364	4.464
275.864	4.45
276.364	4.436
276.864	4.422
277.364	4.408
277.864	4.394
278.364	4.379
278.864	4.364
279.364	4.349
279.864	4.332
280.364	4.315
280.864	4.298
281.364	4.279
281.864	4.26
282.364	4.24
282.864	4.219
283.364	4.197
283.864	4.175
284.364	4.152
284.864	4.129
285.364	4.105
285.864	4.081
286.364	4.057
286.864	4.033
287.364	4.009
287.715	3.974
288.215	3.961
288.715	3.948
289.215	3.936
289.715	3.923
290.215	3.911
290.715	3.899
291.215	3.887
291.715	3.875
292.215	3.863
292.715	3.851
293.215	3.84
293.715	3.829
294.215	3.817
294.715	3.806
295.215	3.795
295.715	3.784
296.215	3.773
296.715	3.762
297.215	3.752
297.715	3.741
298.215	3.731
298.715	3.721
299.215	3.711
299.715	3.701
300.215	3.692
300.715	3.682
301.215	3.673
301.715	3.664
302.215	3.656
302.715	3.648
303.215	3.64
303.715	3.632
304.215	3.625
304.715	3.618
305.215	3.611
305.715	3.605
306.215	3.6
306.715	3.595
307.215	3.59
307.715	3.586
308.215	3.583
308.715	3.58
309.215	3.578
309.715	3.576
310.215	3.576
310.715	3.576
311.215	3.577
311.715	3.579
312.215	3.581
312.715	3.585
313.215	3.589
313.715	3.595
314.045	3.598
314.545	3.604
315.045	3.61
315.545	3.616
316.045	3.622
316.545	3.628
317.045	3.634
317.545	3.64
318.045	3.646
318.545	3.652
319.045	3.658
319.545	3.664
320.045	3.67
320.545	3.676
321.045	3.682
321.545	3.688
322.045	3.694
322.545	3.7
323.045	3.706
323.545	3.712
324.045	3.718
324.545	3.724
325.045	3.73
325.545	3.736
326.045	3.742
326.545	3.748
327.045	3.754
327.545	3.76
328.045	3.766
328.545	3.772
329.045	3.778
329.545	3.784
330.045	3.79
330.545	3.796
331.045	3.802
331.545	3.808
332.045	3.814
332.545	3.82
333.045	3.826
333.545	3.832
334.045	3.838
334.545	3.844
335.045	3.85
335.545	3.856
336.045	3.862
336.545	3.868
337.045	3.874
337.545	3.88
338.045	3.886
338.545	3.892
338.892	3.9
339.392	3.905
339.892	3.909
340.392	3.914
340.892	3.918
341.392	3.921
341.892	3.925
342.392	3.928
342.892	3.931
343.392	3.934
343.892	3.936
344.392	3.938
344.892	3.94
345.392	3.942
345.892	3.944
346.392	3.945
346.892	3.947
347.392	3.948
347.892	3.949
348.392	3.95
348.892	3.951
349.392	3.951
349.892	3.952
350.392	3.952
350.892	3.953
351.392	3.953
351.892	3.953
352.392	3.953
352.892	3.953
353.392	3.952
353.892	3.952
354.392	3.951
354.892	3.951
355.392	3.95
355.892	3.949
356.392	3.948
356.892	3.947
357.392	3.946
357.892	3.944
358.392	3.943
358.892	3.941
359.392	3.939
359.892	3.937
360.392	3.935
360.892	3.933
361.392	3.93
361.892	3.928
362.392	3.925
362.892	3.922
363.392	3.919
363.892	3.916
364.392	3.913
364.892	3.909
365.392	3.906
365.892	3.902
366.392	3.898
366.892	3.894
367.392	3.89
367.892	3.886
368.392	3.882
368.892	3.878
369.392	3.873
369.892	3.869
372.043	3.854
373.043	3.843
374.043	3.832
375.043	3.821
376.043	3.811
377.043	3.801
378.043	3.791
379.043	3.782
380.043	3.773
381.043	3.764
382.043	3.757
383.043	3.749
384.043	3.742
385.043	3.736
386.043	3.731
387.043	3.726
388.043	3.721
389.043	3.718
390.043	3.715
391.043	3.712
392.043	3.711
393.043	3.71
394.043	3.711
395.043	3.712
396.043	3.713
397.043	3.716
398.043	3.72
399.043	3.724
400.043	3.73
401.043	3.737
402.043	3.744
403.043	3.753
404.043	3.763
405.043	3.774
406.043	3.786
406.284	3.796
407.284	3.806
408.284	3.816
409.284	3.826
410.284	3.837
411.284	3.847
412.284	3.858
413.284	3.868
414.284	3.879
415.284	3.89
416.284	3.9
417.284	3.911
418.284	3.921
419.284	3.932
420.284	3.942
421.284	3.952
422.284	3.962
423.284	3.971
424.284	3.981
425.284	3.99
426.284	3.999
427.284	4.007
428.284	4.015
429.284	4.023
430.284	4.031
431.284	4.038
432.284	4.044
433.284	4.05
434.284	4.056
435.284	4.061
436.284	4.065
437.284	4.069
437.352	4.069
438.352	4.073
439.352	4.076
440.352	4.079
441.352	4.082
442.352	4.084
443.352	4.086
444.352	4.087
445.352	4.088
446.352	4.088
447.352	4.087
448.352	4.086
449.352	4.085
450.352	4.083
451.352	4.08
452.352	4.077
453.352	4.073
454.352	4.069
455.352	4.065
456.352	4.06
457.352	4.055
458.352	4.05
459.352	4.045
460.352	4.04
461.352	4.034
462.352	4.029
463.352	4.025
464.352	4.021
464.61	4.021
