Uv/Vis Spectrum: Tetrahydrofuran
Formula: C4H8O
CAS: 109-99-9
Melting point: -108.3
Boiling point: 65
Instrument: Hilger fluorite prism spectrograph
Origin: INSTITUTE OF ENERGY PROBLEMS OF CHEMICAL PHYSICS, RAS and James Klimavicz
Wavelength (nm)	Logarithm epsilon
161	1.91525
162	1.94837
163	1.99576
164	2.07089
165	2.16694
166	2.21542
167	2.26013
168	2.30677
169	2.35092
170	2.38186
171	2.43454
172	2.44747
173	2.40754
174	2.2746
175	2.13037
176	1.95082
177	1.81939
178	1.71847
179	1.6767
180	1.63953
181	1.66499
182	1.7121
183	1.75159
184	1.79651
185	1.84029
186	1.86309
187	1.89352
188	1.87621
189	1.87289
190	1.8604
191	1.81683
192	1.78948
193	1.74416
194	1.65456
195	1.59328
196	1.54416
197	1.34322
198	1.17092
199	1.09046
200	0.94
201	0.82
202	0.74
203	0.55
204	0.32
205	0.07
206	-0.17
207	-0.39
208	-0.55
209	-0.71
210	-0.791
211	-0.91
212	-0.98
213	-1.06
214	-1.192
215	-1.37
216	-1.55
217	-1.79
218	-1.93
219	-2.12
220	-2.25
