Uv/Vis Spectrum: Pyridine, 3-iodo-
Formula: C5H4IN
CAS: 1120-90-7
Melting point: 53.5
Instrument: Beckman DU
Origin: INSTITUTE OF ENERGY PROBLEMS OF CHEMICAL PHYSICS, RAS
Wavelength (nm)	Logarithm epsilon
205.036	3.83526
205.143	3.83515
205.255	3.835
205.371	3.83483
205.577	3.83442
205.887	3.8344
206.197	3.83438
206.507	3.83436
207.646	3.8355
207.94	3.83747
208.787	3.84224
210.569	3.85297
212.399	3.86555
213.611	3.86986
214.694	3.87252
216.11	3.87459
218.652	3.87296
219.769	3.86948
220.702	3.86429
221.572	3.85794
223.162	3.84247
223.679	3.83605
224.225	3.83013
225.27	3.81949
226.456	3.80075
227.252	3.78727
227.641	3.78102
227.96	3.77691
229.738	3.75459
230.43	3.74692
231.355	3.73938
232.463	3.73324
234.65	3.71522
235.636	3.71057
237.094	3.70431
238.389	3.69796
240.387	3.68267
241.234	3.67468
241.998	3.66621
242.774	3.65605
244.492	3.63036
244.769	3.62213
245.185	3.61291
245.869	3.59754
247.101	3.55871
247.68	3.54007
248.037	3.52986
248.477	3.51973
248.941	3.50106
249.048	3.50052
249.161	3.49993
249.276	3.49927
249.276	3.49927
249.592	3.48305
250.093	3.46715
250.71	3.45089
251.376	3.43347
253.025	3.38266
253.966	3.3549
254.444	3.33862
254.868	3.32533
256.985	3.26524
257.554	3.24239
258.161	3.22549
259.25	3.21171
262.059	3.18935
262.278	3.18678
262.5	3.1842
262.728	3.18159
262.857	3.18155
264.068	3.18551
264.695	3.18832
265.277	3.19239
268.039	3.21818
269.043	3.23111
270.052	3.24367
271.065	3.25587
272.819	3.27993
273.292	3.28991
274.111	3.30516
275.401	3.33055
277.5	3.36609
278.203	3.37539
278.747	3.38396
279.599	3.39894
281.551	3.42204
282.426	3.43095
283.307	3.43959
284.19	3.44802
286.206	3.46756
287.079	3.46887
288.601	3.47141
289.44	3.47309
292.25	3.46289
293.111	3.45521
293.974	3.44731
294.844	3.43921
297.044	3.40279
297.617	3.38777
298.189	3.37216
298.762	3.35587
