Uv/Vis Spectrum: Mesoporphyrin ix dimethyl ester
Formula: C36H42N4O4
CAS: 1263-63-4
State: <none>
Instrument: n.i.g.
Origin: INSTITUTE OF ENERGY PROBLEMS OF CHEMICAL PHYSICS, RAS
Wavelength (nm)	Logarithm epsilon
410.57	5.693
411.19	5.692
411.82	5.69
412.44	5.689
413.06	5.682
413.68	5.673
414.3	5.66
414.93	5.645
415.55	5.634
416.17	5.619
416.79	5.604
417.41	5.593
418.03	5.574
418.66	5.551
419.28	5.535
419.9	5.512
420.52	5.485
421.14	5.466
421.77	5.435
422.39	5.402
423.01	5.369
423.63	5.332
424.25	5.306
424.88	5.278
425.5	5.251
426.12	5.231
426.74	5.21
427.36	5.188
427.98	5.156
428.61	5.128
429.23	5.107
429.85	5.087
430.47	5.071
431.09	5.056
431.72	5.042
432.34	5.029
432.96	5.017
433.58	5.002
434.2	4.985
434.83	4.969
435.45	4.961
436.07	4.953
436.69	4.942
437.31	4.933
437.94	4.927
438.56	4.918
439.18	4.912
439.8	4.897
440.42	4.887
441.04	4.884
441.67	4.884
442.29	4.881
442.91	4.878
443.53	4.874
444.15	4.871
444.78	4.868
445.4	4.868
446.02	4.864
446.64	4.864
447.26	4.858
447.89	4.854
448.51	4.854
449.13	4.854
449.75	4.858
450.37	4.864
450.99	4.868
451.62	4.878
452.24	4.884
452.86	4.887
453.48	4.9
454.1	4.909
454.73	4.915
455.35	4.918
455.97	4.924
456.59	4.927
457.21	4.93
457.84	4.936
458.46	4.947
459.08	4.958
459.7	4.967
460.32	4.974
460.94	4.985
461.57	4.992
462.19	5
462.81	5.005
463.43	5.012
464.05	5.022
464.68	5.031
465.3	5.04
465.92	5.049
466.54	5.058
467.16	5.069
467.79	5.081
468.41	5.095
469.03	5.111
469.65	5.128
470.27	5.153
470.89	5.172
471.52	5.191
472.14	5.222
472.76	5.249
473.38	5.274
474	5.293
474.63	5.309
475.25	5.328
475.87	5.35
476.49	5.369
477.11	5.379
477.74	5.389
478.36	5.407
478.98	5.427
479.6	5.445
480.22	5.453
480.85	5.462
481.47	5.478
482.09	5.493
482.71	5.51
483.33	5.518
483.95	5.525
484.58	5.546
485.2	5.563
485.82	5.566
486.44	5.566
487.06	5.566
487.69	5.565
488.31	5.563
488.93	5.561
489.55	5.559
490.17	5.558
490.8	5.556
491.42	5.553
492.04	5.549
492.66	5.546
493.28	5.543
493.9	5.538
494.53	5.526
495.15	5.51
495.77	5.498
496.39	5.486
497.01	5.466
497.64	5.446
498.26	5.432
498.88	5.419
499.5	5.404
500.12	5.39
500.75	5.378
501.37	5.35
501.99	5.317
502.61	5.288
503.23	5.262
503.85	5.238
504.48	5.213
505.1	5.173
505.72	5.133
506.34	5.115
506.96	5.101
507.59	5.089
508.21	5.081
508.83	5.073
509.45	5.064
510.07	5.06
510.7	5.058
511.32	5.06
511.94	5.064
512.56	5.073
513.18	5.081
513.81	5.089
514.43	5.105
515.05	5.124
515.67	5.142
516.29	5.16
516.91	5.17
517.54	5.188
518.16	5.219
518.78	5.249
519.4	5.275
520.02	5.291
520.65	5.307
521.27	5.329
521.89	5.355
522.51	5.374
523.13	5.383
523.76	5.389
524.38	5.393
525	5.396
525.62	5.395
526.24	5.392
526.86	5.388
527.49	5.381
528.11	5.371
528.73	5.361
529.35	5.348
529.97	5.339
530.6	5.326
531.22	5.309
531.84	5.288
532.46	5.265
533.08	5.248
533.71	5.237
534.33	5.219
534.95	5.196
535.57	5.168
536.19	5.135
536.81	5.115
537.44	5.097
538.06	5.047
538.68	4.995
539.3	4.98
539.92	4.958
540.55	4.933
541.17	4.912
541.79	4.897
542.41	4.881
543.03	4.864
543.66	4.851
544.28	4.833
544.9	4.818
545.52	4.81
546.14	4.803
546.77	4.791
547.39	4.787
548.01	4.783
548.63	4.783
549.25	4.783
549.87	4.787
550.5	4.795
551.12	4.803
551.74	4.81
552.36	4.814
552.98	4.818
553.61	4.829
554.23	4.844
554.85	4.864
555.47	4.887
556.09	4.906
556.72	4.927
557.34	4.953
557.96	4.98
558.58	4.998
559.2	5.015
559.82	5.069
560.45	5.139
561.07	5.172
561.69	5.186
562.31	5.205
562.93	5.218
563.56	5.231
564.18	5.24
564.8	5.241
565.42	5.24
566.04	5.235
566.67	5.229
567.29	5.225
567.91	5.219
568.53	5.215
569.15	5.209
569.77	5.202
570.4	5.194
571.02	5.185
571.64	5.172
572.26	5.155
572.88	5.141
573.51	5.128
574.13	5.103
574.75	5.081
575.37	5.071
575.99	5.058
576.62	5.042
577.24	5.019
577.86	4.998
578.48	4.98
579.1	4.956
579.73	4.942
580.35	4.927
580.97	4.912
581.59	4.894
582.21	4.874
582.83	4.854
583.46	4.829
584.08	4.81
584.7	4.791
585.32	4.77
585.94	4.744
586.57	4.717
587.19	4.702
587.81	4.697
588.43	4.692
589.05	4.682
589.68	4.677
590.3	4.671
590.92	4.671
591.54	4.666
592.16	4.655
592.78	4.65
593.41	4.644
594.03	4.633
594.65	4.627
595.27	4.615
595.89	4.609
596.52	4.603
597.14	4.59
597.76	4.584
598.38	4.578
599	4.564
600.25	4.514
602.11	4.466
603.98	4.458
605.84	4.474
607.71	4.507
609.58	4.543
611.44	4.59
613.31	4.644
613.93	4.707
614.55	4.721
615.17	4.735
615.79	4.749
616.42	4.762
617.04	4.774
617.66	4.787
618.28	4.818
618.9	4.84
619.53	4.871
620.15	4.903
620.77	4.942
621.39	5.002
622.01	5.01
622.64	5.051
623.26	5.071
623.88	5.079
624.5	5.071
625.12	5.062
625.74	5.049
626.37	5.031
626.99	5.012
627.61	5.01
628.23	4.974
628.85	4.915
629.48	4.878
630.1	4.829
630.72	4.799
631.34	4.735
631.96	4.702
632.59	4.671
633.21	4.644
633.83	4.621
634.45	4.615
635.07	4.603
635.69	4.59
636.32	4.578
636.94	4.551
637.56	4.514
638.18	4.507
638.8	4.474
639.43	4.44
640.05	4.422
640.67	4.382
641.29	4.35
641.91	4.328
