Uv/Vis Spectrum: Ethyl acetoacetate
Formula: C6H10O3
CAS: 141-97-9
Melting point: -45
Boiling point: 180.8
Instrument: n.i.g.
Origin: INSTITUTE OF ENERGY PROBLEMS OF CHEMICAL PHYSICS, RAS
Wavelength (nm)	Logarithm epsilon
315.549	0.524889
315.025	0.577526
314.42	0.629032
313.799	0.693876
313.799	0.693876
312.803	0.739517
311.939	0.786617
311.179	0.8336
310.496	0.878901
310.496	0.878901
308.763	0.929189
307.69	0.995267
307.688	0.991713
307.685	0.988157
307.682	0.984604
307.521	0.961435
305.709	1.00328
305.709	1.00328
304.727	1.01193
303.176	1.03344
299.774	1.08627
299.774	1.08627
297.95	1.1237
296.192	1.16044
294.503	1.19688
292.886	1.23346
291.344	1.27057
289.88	1.30863
288.496	1.34804
287.197	1.38921
287.197	1.38921
285.602	1.48311
284.367	1.55832
283.433	1.61719
282.746	1.66206
282.252	1.6953
281.902	1.71924
281.645	1.73625
281.434	1.74866
281.434	1.74866
281.052	1.78768
280.673	1.82759
280.292	1.8682
279.904	1.90933
279.503	1.95079
279.085	1.99241
278.644	2.03398
278.176	2.07534
277.675	2.1163
277.138	2.15667
276.559	2.19627
275.933	2.23491
275.258	2.27242
274.527	2.3086
274.527	2.3086
274.126	2.34877
273.739	2.38895
273.366	2.42913
273.004	2.4693
272.651	2.50946
272.305	2.54961
271.965	2.58974
271.628	2.62986
271.292	2.66994
270.957	2.71
270.618	2.75003
270.276	2.79002
269.928	2.82997
269.572	2.86988
269.207	2.90974
268.831	2.94955
268.441	2.98931
268.441	2.98931
268.02	3.00161
267.446	3.03731
266.234	3.12704
266.234	3.12704
265.801	3.16761
265.304	3.20839
264.747	3.24927
264.136	3.29012
263.473	3.33083
262.764	3.37129
262.013	3.41137
261.224	3.45097
260.401	3.48996
259.548	3.52824
258.67	3.56567
257.77	3.60216
256.852	3.63757
256.852	3.63757
255.289	3.68018
253.744	3.72278
252.218	3.76539
252.218	3.76539
250.97	3.78506
249.726	3.80473
248.489	3.82441
248.489	3.82441
246.41	3.83562
244.601	3.84071
243.008	3.83999
241.578	3.8338
240.263	3.82247
239.014	3.80631
237.789	3.78567
236.543	3.76086
235.237	3.73223
233.83	3.70008
233.83	3.70008
232.579	3.66109
231.239	3.61729
230.229	3.56976
