Uv/Vis Spectrum: tris(2,3,5,6-tetramethylphenyl) phosphine
Formula: C30H39P
CAS: 54947-97-6
Melting point: 185-186
Instrument: SF-4A
Origin: INSTITUTE OF ENERGY PROBLEMS OF CHEMICAL PHYSICS, RAS
Wavelength (nm)	Logarithm epsilon
215.706	4.776
217.706	4.737
219.706	4.708
221.706	4.681
223.706	4.649
225.706	4.611
227.706	4.567
229.706	4.518
231.706	4.466
233.706	4.413
235.706	4.363
237.706	4.316
239.706	4.275
241.706	4.238
243.706	4.205
245.706	4.176
247.706	4.147
249.706	4.116
251.706	4.081
253.706	4.038
255.706	3.986
257.706	3.925
259.719	3.856
261.719	3.791
263.719	3.716
265.719	3.66
267.719	3.639
269.719	3.651
271.719	3.692
273.719	3.747
274.891	3.785
276.166	3.82
277.815	3.853
279.815	3.897
281.815	3.937
283.815	3.971
285.815	4
287.815	4.025
289.815	4.046
291.815	4.064
293.815	4.08
295.815	4.094
297.815	4.109
299.815	4.123
301.815	4.138
303.815	4.154
305.744	4.17
307.744	4.19
309.744	4.209
311.744	4.223
313.744	4.232
315.744	4.236
317.744	4.235
319.744	4.227
321.744	4.214
323.744	4.195
325.744	4.171
327.744	4.143
329.744	4.109
331.744	4.072
333.744	4.03
335.744	3.985
337.744	3.936
339.744	3.883
341.744	3.827
343.744	3.768
345.744	3.705
347.744	3.638
349.744	3.567
351.744	3.492
353.744	3.412
355.744	3.328
357.744	3.24
359.744	3.147
361.744	3.051
363.744	2.951
365.744	2.85
367.744	2.747
369.744	2.645
371.744	2.547
373.744	2.455
375.744	2.373
