Uv/Vis Spectrum: tris (2,3,5,6-tetramethylphenyl)phosphine sulfide
Formula: C30H39PS
CAS: 63491-96-3
Melting point: 218-218.5
Instrument: SF-4A
Origin: INSTITUTE OF ENERGY PROBLEMS OF CHEMICAL PHYSICS, RAS
Wavelength (nm)	Logarithm epsilon
210.563	4.844
211.563	4.833
212.563	4.814
213.563	4.791
214.563	4.766
215.563	4.74
216.563	4.716
217.563	4.694
218.563	4.673
219.563	4.655
220.563	4.637
221.563	4.62
222.563	4.603
223.563	4.584
224.545	4.558
225.545	4.547
226.545	4.512
227.545	4.472
228.545	4.433
229.545	4.393
230.545	4.348
231.545	4.289
232.545	4.208
233.545	4.102
234.545	3.974
235.545	3.839
236.545	3.725
236.608	3.727
237.608	3.632
238.608	3.547
239.608	3.486
240.608	3.454
241.608	3.45
242.608	3.467
243.608	3.497
244.608	3.53
245.608	3.56
246.478	3.569
247.478	3.61
248.478	3.64
249.478	3.666
250.478	3.694
251.276	3.714
252.276	3.748
253.276	3.775
254.276	3.796
255.276	3.813
256.276	3.826
257.276	3.838
258.276	3.85
259.276	3.864
260.276	3.883
260.348	3.883
261.348	3.892
262.348	3.894
263.348	3.889
264.348	3.878
265.348	3.864
266.348	3.846
267.348	3.824
268.348	3.798
269.348	3.765
269.508	3.757
270.508	3.716
271.508	3.677
272.508	3.639
273.508	3.6
274.508	3.562
275.508	3.523
276.508	3.484
277.508	3.445
278.508	3.407
279.508	3.368
280.508	3.328
281.508	3.285
281.571	3.282
282.571	3.237
283.571	3.195
284.571	3.153
285.571	3.11
286.571	3.064
287.571	3.015
288.571	2.962
289.571	2.905
290.571	2.844
291.571	2.78
292.571	2.714
293.571	2.646
294.571	2.577
295.571	2.508
296.571	2.44
297.571	2.372
