Uv/Vis Spectrum: Methanol
Formula: CH4O
CAS: 67-56-1
State: <none>
Boiling point: 82/ 10 mm
Instrument: Beckman DU
Origin: Fabricated by James Klimavicz for Demo Purposes only
Wavelength (nm)	Logarithm epsilon
203.5	-0.78
204.5	-0.89
205.5	-1
206.5	-1.09
207.5	-1.14
208.5	-1.2
209.5	-1.25
210.5	-1.32
211.5	-1.36
212.5	-1.43
213.5	-1.52
214.5	-1.59
215.5	-1.65
216.5	-1.69
217.5	-1.74
218.5	-1.78
219.5	-1.815
220.5	-1.832
221.5	-1.856
222.51	-1.878
223.36	-1.902
224.21	-1.927
225.07	-1.955
226.12	-1.98
226.99	-2.008
227.87	-2.033
228.58	-2.061
229.3	-2.089
230.2	-2.117
230.93	-2.145
231.66	-2.174
232.57	-2.202
233.13	-2.23
234.06	-2.258
234.62	-2.286
235.38	-2.315
236.32	-2.343
236.9	-2.371
237.47	-2.399
238.24	-2.427
238.83	-2.456
239.41	-2.484
240.2	-2.512
240.79	-2.54
241.58	-2.568
242.38	-2.596
243.39	-2.621
244.2	-2.649
245.22	-2.674
246.46	-2.699
247.71	-2.72
248.76	-2.744
250.24	-2.766
251.75	-2.783
253.49	-2.794
255.48	-2.801
257.5	-2.79
259.55	-2.783
261.4	-2.766
263.28	-2.752
265.42	-2.741
267.36	-2.73
269.57	-2.727
271.82	-2.727
274.11	-2.73
276.44	-2.734
278.54	-2.748
280.67	-2.762
282.84	-2.773
284.76	-2.794
286.99	-2.811
288.97	-2.833
290.98	-2.85
292.72	-2.875
294.49	-2.9
296.27	-2.921
297.78	-2.949
299.61	-2.974
301.14	-3.002
302.7	-3.03
304.27	-3.058
305.86	-3.086
306.82	-3.115
308.11	-3.143
309.41	-3.171
310.39	-3.203
311.38	-3.231
312.38	-3.263
313.38	-3.294
314.39	-3.326
315.74	-3.354
316.76	-3.382
317.79	-3.414
318.83	-3.446
319.88	-3.478
320.93	-3.509
321.63	-3.541
322.69	-3.573
323.76	-3.604
324.84	-3.636
325.56	-3.668
326.65	-3.7
327.74	-3.731
328.85	-3.763
329.59	-3.795
330.33	-3.826
331.45	-3.858
