Uv/Vis Spectrum: Isopropanol
Formula: C3H8O
CAS: 67-63-0
State: <none>
Boiling point: 82/ 10 mm
Instrument: Beckman DU
Origin: Fabricated by James Klimavicz for Demo Purposes only
Wavelength (nm)	Logarithm epsilon
210.5	-0.78
211.5	-0.89
212.5	-1
213.5	-1.09
214.5	-1.14
215.5	-1.2
216.5	-1.25
217.5	-1.32
218.5	-1.36
219.5	-1.43
220.5	-1.52
221.5	-1.59
222.51	-1.65
223.36	-1.69
224.21	-1.74
225.07	-1.78
226.12	-1.815
226.99	-1.832
227.87	-1.856
228.58	-1.878
229.3	-1.902
230.2	-1.927
230.93	-1.955
231.66	-1.98
232.57	-2.008
233.13	-2.033
234.06	-2.061
234.62	-2.089
235.38	-2.117
236.32	-2.145
236.9	-2.174
237.47	-2.202
238.24	-2.23
238.83	-2.258
239.41	-2.286
240.2	-2.315
240.79	-2.343
241.58	-2.371
242.38	-2.399
243.39	-2.427
244.2	-2.456
245.22	-2.484
246.46	-2.512
247.71	-2.54
248.76	-2.568
250.24	-2.596
251.75	-2.621
253.49	-2.649
255.48	-2.674
257.5	-2.699
259.55	-2.72
261.4	-2.744
263.28	-2.766
265.42	-2.783
267.36	-2.794
269.57	-2.801
271.82	-2.79
274.11	-2.783
276.44	-2.766
278.54	-2.752
280.67	-2.741
282.84	-2.73
284.76	-2.727
286.99	-2.727
288.97	-2.73
290.98	-2.734
292.72	-2.748
294.49	-2.762
296.27	-2.773
297.78	-2.794
299.61	-2.811
301.14	-2.833
302.7	-2.85
304.27	-2.875
305.86	-2.9
306.82	-2.921
308.11	-2.949
309.41	-2.974
310.39	-3.002
311.38	-3.03
312.38	-3.058
313.38	-3.086
314.39	-3.115
315.74	-3.143
316.76	-3.171
317.79	-3.203
318.83	-3.231
319.88	-3.263
320.93	-3.294
321.63	-3.326
322.69	-3.354
323.76	-3.382
324.84	-3.414
325.56	-3.446
326.65	-3.478
327.74	-3.509
328.85	-3.541
329.59	-3.573
330.33	-3.604
331.45	-3.636
332.57	-3.668
333.69	-3.7
334.81	-3.731
335.93	-3.763
337.05	-3.795
338.17	-3.826
339.29	-3.858
