Uv/Vis Spectrum: Water
Formula: H2O
CAS: 7732-18-5
State: <none>
Boiling point: 82/ 10 mm
Instrument: Beckman DU
Origin: Fabricated by James Klimavicz for Demo Purposes only
Wavelength (nm)	Logarithm epsilon
170	2.5
171	2.31
172	2
173	1.9
174	1.86
175	1.92
176	1.95
177	1.79
178	1.21
179	0.81
180	0.56
181	0.41
182	0.37
183	0.41
184	0.56
185	0.68
186	0.71
187	0.65
188	0.54
189	0.38
190	0.22
191	0.07
192	-0.18
193	-0.35
194	-0.61
195	-0.91
196	-1.28
197	-1.71
