Uv/Vis Spectrum: 1,2-Bis(diphenylphosphino)-ethane
Formula: C26H24P2
CAS: 1663-45-2
Melting point: 140-141
Instrument: Zeiss PMQ II
Origin: INSTITUTE OF ENERGY PROBLEMS OF CHEMICAL PHYSICS, RAS
Wavelength (nm)	Logarithm epsilon
203.54	4.767
204.55	4.747
205.56	4.723
206.74	4.703
207.92	4.686
209.1	4.666
210.28	4.646
211.29	4.625
212.47	4.605
213.64	4.585
214.82	4.565
215.67	4.541
216.68	4.521
217.86	4.5
218.87	4.477
219.88	4.457
221.06	4.44
222.24	4.419
223.42	4.403
224.43	4.382
225.44	4.359
226.28	4.335
227.46	4.315
228.47	4.295
229.31	4.271
230.32	4.247
231.33	4.224
232.17	4.197
233.19	4.176
234.36	4.16
235.54	4.143
236.89	4.129
238.41	4.126
239.92	4.129
241.27	4.143
242.62	4.153
243.97	4.166
245.31	4.183
246.66	4.193
248.01	4.203
249.53	4.207
251.04	4.21
252.56	4.207
254.07	4.203
255.42	4.193
256.77	4.183
258.12	4.17
259.46	4.153
260.64	4.136
261.82	4.119
263	4.102
264.18	4.085
265.36	4.065
266.54	4.048
267.55	4.028
268.56	4.008
269.57	3.987
270.75	3.967
271.93	3.947
272.94	3.927
273.95	3.903
274.96	3.879
275.97	3.856
276.82	3.832
277.66	3.809
278.67	3.785
279.51	3.758
280.52	3.734
281.03	3.707
281.87	3.684
282.54	3.657
283.39	3.633
284.06	3.606
284.9	3.579
285.41	3.552
286.08	3.525
286.59	3.498
287.09	3.471
287.6	3.444
288.27	3.417
288.78	3.39
289.28	3.363
289.95	3.336
290.46	3.309
290.97	3.282
291.47	3.255
291.98	3.228
292.48	3.201
292.99	3.174
293.49	3.144
293.83	3.113
294.33	3.083
294.84	3.056
295.35	3.025
295.85	2.995
296.19	2.965
296.69	2.938
297.2	2.911
297.7	2.884
298.21	2.853
298.71	2.823
298.88	2.793
299.39	2.766
299.89	2.739
300.4	2.712
300.9	2.685
301.41	2.658
301.92	2.627
302.42	2.6
302.93	2.57
303.43	2.539
303.94	2.509
304.44	2.482
304.78	2.452
305.28	2.425
305.79	2.394
306.3	2.367
306.8	2.34
307.31	2.31
307.81	2.28
308.32	2.253
308.82	2.226
309.16	2.195
309.66	2.168
310.17	2.141
310.34	2.111
311.01	2.084
311.52	2.057
311.85	2.026
312.36	1.999
312.86	1.972
313.37	1.942
313.88	1.912
314.38	1.881
314.89	1.854
315.39	1.827
315.9	1.8
316.4	1.77
316.91	1.743
317.41	1.716
317.92	1.689
318.42	1.662
318.93	1.635
319.6	1.608
320.11	1.581
320.61	1.554
321.29	1.527
321.79	1.496
322.3	1.469
322.8	1.442
323.48	1.415
323.98	1.388
324.66	1.361
325.33	1.334
325.84	1.307
326.68	1.28
327.18	1.253
328.03	1.23
328.53	1.203
329.37	1.179
330.05	1.152
330.72	1.125
