Uv/Vis Spectrum: 6-chloro-9-[(4-diethylamino)-1-methylbutyl]amino-2-methoxyacridine
CAS: 69-05-6
Instrument: Cary 15
Origin: INSTITUTE OF ENERGY PROBLEMS OF CHEMICAL PHYSICS, RAS
Wavelength (nm)	Logarithm epsilon
240.28	3.963
241.846	3.949
243.28	3.959
244.28	3.978
245.28	4
246.28	4.022
247.28	4.044
248.28	4.066
249.28	4.088
250.28	4.112
251.28	4.136
252.28	4.161
253.28	4.188
254.28	4.216
255.28	4.244
256.28	4.273
257.28	4.301
258.28	4.327
259.28	4.352
260.28	4.375
261.28	4.395
261.995	4.411
262.995	4.423
263.995	4.435
264.995	4.448
265.995	4.459
266.995	4.47
267.995	4.481
268.995	4.49
269.995	4.499
270.995	4.508
271.995	4.516
272.995	4.523
273.995	4.531
274.737	4.539
276.304	4.548
277.995	4.553
279.995	4.553
281.995	4.533
283.309	4.506
284.309	4.468
285.309	4.41
286.309	4.336
287.309	4.25
288.309	4.156
289.309	4.061
290.309	3.975
291.397	3.912
292.397	3.873
293.843	3.805
295.843	3.74
297.843	3.668
299.843	3.594
301.843	3.524
303.843	3.462
305.843	3.415
307.843	3.383
309.843	3.368
311.843	3.365
313.843	3.37
315.843	3.38
317.843	3.39
319.843	3.4
321.843	3.409
323.843	3.417
325.843	3.425
327.843	3.436
329.843	3.451
332.473	3.471
334.473	3.495
336.473	3.526
338.473	3.547
340.473	3.549
342.473	3.534
344.473	3.502
346.473	3.458
348.92	3.402
350.92	3.335
352.92	3.278
354.92	3.233
356.92	3.198
358.92	3.175
360.92	3.161
362.92	3.157
364.92	3.161
366.92	3.171
368.92	3.188
370.92	3.21
372.92	3.236
374.92	3.266
376.92	3.298
378.92	3.332
380.92	3.367
382.92	3.401
384.92	3.435
386.92	3.468
388.92	3.499
390.92	3.527
392.92	3.553
394.92	3.577
396.92	3.597
398.92	3.615
400.92	3.631
402.92	3.644
404.92	3.656
406.92	3.668
409.733	3.688
411.733	3.705
413.733	3.726
415.733	3.748
417.733	3.766
419.733	3.78
421.733	3.787
423.733	3.786
425.733	3.777
427.71	3.761
429.71	3.741
431.71	3.729
433.71	3.725
435.71	3.727
437.71	3.732
440.332	3.736
442.332	3.732
444.332	3.721
446.332	3.704
448.332	3.679
450.332	3.646
452.332	3.604
454.332	3.553
456.332	3.492
458.308	3.421
460.308	3.342
462.308	3.251
464.308	3.152
466.308	3.047
468.308	2.943
470.308	2.847
472.308	2.759
474.308	2.67
476.308	2.545
478.308	2.256
